data_test

_audit_creation_method RASPA-1.0
_audit_creation_date 2016-11-20
_audit_author_name 'daniele'

_cell_length_a    12
_cell_length_b    20
_cell_length_c    26
_cell_angle_alpha 60
_cell_angle_beta  90
_cell_angle_gamma 90
_cell_volume      5404

_symmetry_cell_setting          triclinic
_symmetry_space_group_name_Hall 'P 1'
_symmetry_space_group_name_H-M  'P 1'
_symmetry_Int_Tables_number     1

_symmetry_equiv_pos_as_xyz 'x,y,z'

loop_
_atom_site_label
_atom_site_type_symbol
_atom_site_fract_x
_atom_site_fract_y
_atom_site_fract_z
_atom_site_charge
C        C      0.000000000000     0.000000000000     0.000000000000     0          
C        C      0.000000000000     0.000000000000     0.500000000000     0          
C        C      0.000000000000     0.500000000000     0.000000000000     0          
C        C      0.000000000000     0.500000000000     0.500000000000     0          
C        C      0.500000000000     0.000000000000     0.000000000000     0          
C        C      0.500000000000     0.000000000000     0.500000000000     0          
C        C      0.500000000000     0.500000000000     0.000000000000     0          
C        C      0.500000000000     0.500000000000     0.500000000000     0          


